ConvexEnergyFunction/Cases/case118lossless.m
function mpc = case118lossless
%CASE118LOSSLESS

%% MATPOWER Case Format : Version 2
mpc.version = '2';

%%-----  Power Flow Data  -----%%
%% system MVA base
mpc.baseMVA = 100;

%% bus data
%	bus_i	type	Pd	Qd	Gs	Bs	area	Vm	Va	baseKV	zone	Vmax	Vmin
mpc.bus = [
	1	2	51	27	0	0	1	0.955	10.67	138	1	1.06	0.94;
	2	1	20	9	0	0	1	0.971	11.22	138	1	1.06	0.94;
	3	1	39	10	0	0	1	0.968	11.56	138	1	1.06	0.94;
	4	2	39	12	0	0	1	0.998	15.28	138	1	1.06	0.94;
	5	1	0	0	0	-40	1	1.002	15.73	138	1	1.06	0.94;
	6	2	52	22	0	0	1	0.99	13	138	1	1.06	0.94;
	7	1	19	2	0	0	1	0.989	12.56	138	1	1.06	0.94;
	8	2	28	0	0	0	1	1.015	20.77	345	1	1.06	0.94;
	9	1	0	0	0	0	1	1.043	28.02	345	1	1.06	0.94;
	10	2	0	0	0	0	1	1.05	35.61	345	1	1.06	0.94;
	11	1	70	23	0	0	1	0.985	12.72	138	1	1.06	0.94;
	12	2	47	10	0	0	1	0.99	12.2	138	1	1.06	0.94;
	13	1	34	16	0	0	1	0.968	11.35	138	1	1.06	0.94;
	14	1	14	1	0	0	1	0.984	11.5	138	1	1.06	0.94;
	15	2	90	30	0	0	1	0.97	11.23	138	1	1.06	0.94;
	16	1	25	10	0	0	1	0.984	11.91	138	1	1.06	0.94;
	17	1	11	3	0	0	1	0.995	13.74	138	1	1.06	0.94;
	18	2	60	34	0	0	1	0.973	11.53	138	1	1.06	0.94;
	19	2	45	25	0	0	1	0.963	11.05	138	1	1.06	0.94;
	20	1	18	3	0	0	1	0.958	11.93	138	1	1.06	0.94;
	21	1	14	8	0	0	1	0.959	13.52	138	1	1.06	0.94;
	22	1	10	5	0	0	1	0.97	16.08	138	1	1.06	0.94;
	23	1	7	3	0	0	1	1	21	138	1	1.06	0.94;
	24	2	13	0	0	0	1	0.992	20.89	138	1	1.06	0.94;
	25	2	0	0	0	0	1	1.05	27.93	138	1	1.06	0.94;
	26	2	0	0	0	0	1	1.015	29.71	345	1	1.06	0.94;
	27	2	71	13	0	0	1	0.968	15.35	138	1	1.06	0.94;
	28	1	17	7	0	0	1	0.962	13.62	138	1	1.06	0.94;
	29	1	24	4	0	0	1	0.963	12.63	138	1	1.06	0.94;
	30	1	0	0	0	0	1	0.968	18.79	345	1	1.06	0.94;
	31	2	43	27	0	0	1	0.967	12.75	138	1	1.06	0.94;
	32	2	59	23	0	0	1	0.964	14.8	138	1	1.06	0.94;
	33	1	23	9	0	0	1	0.972	10.63	138	1	1.06	0.94;
	34	2	59	26	0	14	1	0.986	11.3	138	1	1.06	0.94;
	35	1	33	9	0	0	1	0.981	10.87	138	1	1.06	0.94;
	36	2	31	17	0	0	1	0.98	10.87	138	1	1.06	0.94;
	37	1	0	0	0	-25	1	0.992	11.77	138	1	1.06	0.94;
	38	1	0	0	0	0	1	0.962	16.91	345	1	1.06	0.94;
	39	1	27	11	0	0	1	0.97	8.41	138	1	1.06	0.94;
	40	2	66	23	0	0	1	0.97	7.35	138	1	1.06	0.94;
	41	1	37	10	0	0	1	0.967	6.92	138	1	1.06	0.94;
	42	2	96	23	0	0	1	0.985	8.53	138	1	1.06	0.94;
	43	1	18	7	0	0	1	0.978	11.28	138	1	1.06	0.94;
	44	1	16	8	0	10	1	0.985	13.82	138	1	1.06	0.94;
	45	1	53	22	0	10	1	0.987	15.67	138	1	1.06	0.94;
	46	2	28	10	0	10	1	1.005	18.49	138	1	1.06	0.94;
	47	1	34	0	0	0	1	1.017	20.73	138	1	1.06	0.94;
	48	1	20	11	0	15	1	1.021	19.93	138	1	1.06	0.94;
	49	2	87	30	0	0	1	1.025	20.94	138	1	1.06	0.94;
	50	1	17	4	0	0	1	1.001	18.9	138	1	1.06	0.94;
	51	1	17	8	0	0	1	0.967	16.28	138	1	1.06	0.94;
	52	1	18	5	0	0	1	0.957	15.32	138	1	1.06	0.94;
	53	1	23	11	0	0	1	0.946	14.35	138	1	1.06	0.94;
	54	2	113	32	0	0	1	0.955	15.26	138	1	1.06	0.94;
	55	2	63	22	0	0	1	0.952	14.97	138	1	1.06	0.94;
	56	2	84	18	0	0	1	0.954	15.16	138	1	1.06	0.94;
	57	1	12	3	0	0	1	0.971	16.36	138	1	1.06	0.94;
	58	1	12	3	0	0	1	0.959	15.51	138	1	1.06	0.94;
	59	2	277	113	0	0	1	0.985	19.37	138	1	1.06	0.94;
	60	1	78	3	0	0	1	0.993	23.15	138	1	1.06	0.94;
	61	2	0	0	0	0	1	0.995	24.04	138	1	1.06	0.94;
	62	2	77	14	0	0	1	0.998	23.43	138	1	1.06	0.94;
	63	1	0	0	0	0	1	0.969	22.75	345	1	1.06	0.94;
	64	1	0	0	0	0	1	0.984	24.52	345	1	1.06	0.94;
	65	2	0	0	0	0	1	1.005	27.65	345	1	1.06	0.94;
	66	2	39	18	0	0	1	1.05	27.48	138	1	1.06	0.94;
	67	1	28	7	0	0	1	1.02	24.84	138	1	1.06	0.94;
	68	1	0	0	0	0	1	1.003	27.55	345	1	1.06	0.94;
	69	3	0	0	0	0	1	1.035	30	138	1	1.06	0.94;
	70	2	66	20	0	0	1	0.984	22.58	138	1	1.06	0.94;
	71	1	0	0	0	0	1	0.987	22.15	138	1	1.06	0.94;
	72	2	12	0	0	0	1	0.98	20.98	138	1	1.06	0.94;
	73	2	6	0	0	0	1	0.991	21.94	138	1	1.06	0.94;
	74	2	68	27	0	12	1	0.958	21.64	138	1	1.06	0.94;
	75	1	47	11	0	0	1	0.967	22.91	138	1	1.06	0.94;
	76	2	68	36	0	0	1	0.943	21.77	138	1	1.06	0.94;
	77	2	61	28	0	0	1	1.006	26.72	138	1	1.06	0.94;
	78	1	71	26	0	0	1	1.003	26.42	138	1	1.06	0.94;
	79	1	39	32	0	20	1	1.009	26.72	138	1	1.06	0.94;
	80	2	130	26	0	0	1	1.04	28.96	138	1	1.06	0.94;
	81	1	0	0	0	0	1	0.997	28.1	345	1	1.06	0.94;
	82	1	54	27	0	20	1	0.989	27.24	138	1	1.06	0.94;
	83	1	20	10	0	10	1	0.985	28.42	138	1	1.06	0.94;
	84	1	11	7	0	0	1	0.98	30.95	138	1	1.06	0.94;
	85	2	24	15	0	0	1	0.985	32.51	138	1	1.06	0.94;
	86	1	21	10	0	0	1	0.987	31.14	138	1	1.06	0.94;
	87	2	0	0	0	0	1	1.015	31.4	161	1	1.06	0.94;
	88	1	48	10	0	0	1	0.987	35.64	138	1	1.06	0.94;
	89	2	0	0	0	0	1	1.005	39.69	138	1	1.06	0.94;
	90	2	163	42	0	0	1	0.985	33.29	138	1	1.06	0.94;
	91	2	10	0	0	0	1	0.98	33.31	138	1	1.06	0.94;
	92	2	65	10	0	0	1	0.993	33.8	138	1	1.06	0.94;
	93	1	12	7	0	0	1	0.987	30.79	138	1	1.06	0.94;
	94	1	30	16	0	0	1	0.991	28.64	138	1	1.06	0.94;
	95	1	42	31	0	0	1	0.981	27.67	138	1	1.06	0.94;
	96	1	38	15	0	0	1	0.993	27.51	138	1	1.06	0.94;
	97	1	15	9	0	0	1	1.011	27.88	138	1	1.06	0.94;
	98	1	34	8	0	0	1	1.024	27.4	138	1	1.06	0.94;
	99	2	42	0	0	0	1	1.01	27.04	138	1	1.06	0.94;
	100	2	37	18	0	0	1	1.017	28.03	138	1	1.06	0.94;
	101	1	22	15	0	0	1	0.993	29.61	138	1	1.06	0.94;
	102	1	5	3	0	0	1	0.991	32.3	138	1	1.06	0.94;
	103	2	23	16	0	0	1	1.001	24.44	138	1	1.06	0.94;
	104	2	38	25	0	0	1	0.971	21.69	138	1	1.06	0.94;
	105	2	31	26	0	20	1	0.965	20.57	138	1	1.06	0.94;
	106	1	43	16	0	0	1	0.962	20.32	138	1	1.06	0.94;
	107	2	50	12	0	6	1	0.952	17.53	138	1	1.06	0.94;
	108	1	2	1	0	0	1	0.967	19.38	138	1	1.06	0.94;
	109	1	8	3	0	0	1	0.967	18.93	138	1	1.06	0.94;
	110	2	39	30	0	6	1	0.973	18.09	138	1	1.06	0.94;
	111	2	0	0	0	0	1	0.98	19.74	138	1	1.06	0.94;
	112	2	68	13	0	0	1	0.975	14.99	138	1	1.06	0.94;
	113	2	6	0	0	0	1	0.993	13.74	138	1	1.06	0.94;
	114	1	8	3	0	0	1	0.96	14.46	138	1	1.06	0.94;
	115	1	22	7	0	0	1	0.96	14.46	138	1	1.06	0.94;
	116	2	184	0	0	0	1	1.005	27.12	138	1	1.06	0.94;
	117	1	20	8	0	0	1	0.974	10.67	138	1	1.06	0.94;
	118	1	33	15	0	0	1	0.949	21.92	138	1	1.06	0.94;
];

%% generator data
%	bus	Pg	Qg	Qmax	Qmin	Vg	mBase	status	Pmax	Pmin	Pc1	Pc2	Qc1min	Qc1max	Qc2min	Qc2max	ramp_agc	ramp_10	ramp_30	ramp_q	apf
mpc.gen = [
	1	0	0	15	-5	0.955	100	1	100	0	0	0	0	0	0	0	0	0	0	0	0;
	4	0	0	300	-300	0.998	100	1	100	0	0	0	0	0	0	0	0	0	0	0	0;
	6	0	0	50	-13	0.99	100	1	100	0	0	0	0	0	0	0	0	0	0	0	0;
	8	0	0	300	-300	1.015	100	1	100	0	0	0	0	0	0	0	0	0	0	0	0;
	10	450	0	200	-147	1.05	100	1	550	0	0	0	0	0	0	0	0	0	0	0	0;
	12	85	0	120	-35	0.99	100	1	185	0	0	0	0	0	0	0	0	0	0	0	0;
	15	0	0	30	-10	0.97	100	1	100	0	0	0	0	0	0	0	0	0	0	0	0;
	18	0	0	50	-16	0.973	100	1	100	0	0	0	0	0	0	0	0	0	0	0	0;
	19	0	0	24	-8	0.962	100	1	100	0	0	0	0	0	0	0	0	0	0	0	0;
	24	0	0	300	-300	0.992	100	1	100	0	0	0	0	0	0	0	0	0	0	0	0;
	25	220	0	140	-47	1.05	100	1	320	0	0	0	0	0	0	0	0	0	0	0	0;
	26	314	0	1000	-1000	1.015	100	1	414	0	0	0	0	0	0	0	0	0	0	0	0;
	27	0	0	300	-300	0.968	100	1	100	0	0	0	0	0	0	0	0	0	0	0	0;
	31	7	0	300	-300	0.967	100	1	107	0	0	0	0	0	0	0	0	0	0	0	0;
	32	0	0	42	-14	0.963	100	1	100	0	0	0	0	0	0	0	0	0	0	0	0;
	34	0	0	24	-8	0.984	100	1	100	0	0	0	0	0	0	0	0	0	0	0	0;
	36	0	0	24	-8	0.98	100	1	100	0	0	0	0	0	0	0	0	0	0	0	0;
	40	0	0	300	-300	0.97	100	1	100	0	0	0	0	0	0	0	0	0	0	0	0;
	42	0	0	300	-300	0.985	100	1	100	0	0	0	0	0	0	0	0	0	0	0	0;
	46	19	0	100	-100	1.005	100	1	119	0	0	0	0	0	0	0	0	0	0	0	0;
	49	204	0	210	-85	1.025	100	1	304	0	0	0	0	0	0	0	0	0	0	0	0;
	54	48	0	300	-300	0.955	100	1	148	0	0	0	0	0	0	0	0	0	0	0	0;
	55	0	0	23	-8	0.952	100	1	100	0	0	0	0	0	0	0	0	0	0	0	0;
	56	0	0	15	-8	0.954	100	1	100	0	0	0	0	0	0	0	0	0	0	0	0;
	59	155	0	180	-60	0.985	100	1	255	0	0	0	0	0	0	0	0	0	0	0	0;
	61	160	0	300	-100	0.995	100	1	260	0	0	0	0	0	0	0	0	0	0	0	0;
	62	0	0	20	-20	0.998	100	1	100	0	0	0	0	0	0	0	0	0	0	0	0;
	65	391	0	200	-67	1.005	100	1	491	0	0	0	0	0	0	0	0	0	0	0	0;
	66	392	0	200	-67	1.05	100	1	492	0	0	0	0	0	0	0	0	0	0	0	0;
	69	516.4	0	300	-300	1.035	100	1	805.2	0	0	0	0	0	0	0	0	0	0	0	0;
	70	0	0	32	-10	0.984	100	1	100	0	0	0	0	0	0	0	0	0	0	0	0;
	72	0	0	100	-100	0.98	100	1	100	0	0	0	0	0	0	0	0	0	0	0	0;
	73	0	0	100	-100	0.991	100	1	100	0	0	0	0	0	0	0	0	0	0	0	0;
	74	0	0	9	-6	0.958	100	1	100	0	0	0	0	0	0	0	0	0	0	0	0;
	76	0	0	23	-8	0.943	100	1	100	0	0	0	0	0	0	0	0	0	0	0	0;
	77	0	0	70	-20	1.006	100	1	100	0	0	0	0	0	0	0	0	0	0	0	0;
	80	477	0	280	-165	1.04	100	1	577	0	0	0	0	0	0	0	0	0	0	0	0;
	85	0	0	23	-8	0.985	100	1	100	0	0	0	0	0	0	0	0	0	0	0	0;
	87	4	0	1000	-100	1.015	100	1	104	0	0	0	0	0	0	0	0	0	0	0	0;
	89	607	0	300	-210	1.005	100	1	707	0	0	0	0	0	0	0	0	0	0	0	0;
	90	0	0	300	-300	0.985	100	1	100	0	0	0	0	0	0	0	0	0	0	0	0;
	91	0	0	100	-100	0.98	100	1	100	0	0	0	0	0	0	0	0	0	0	0	0;
	92	0	0	9	-3	0.99	100	1	100	0	0	0	0	0	0	0	0	0	0	0	0;
	99	0	0	100	-100	1.01	100	1	100	0	0	0	0	0	0	0	0	0	0	0	0;
	100	252	0	155	-50	1.017	100	1	352	0	0	0	0	0	0	0	0	0	0	0	0;
	103	40	0	40	-15	1.01	100	1	140	0	0	0	0	0	0	0	0	0	0	0	0;
	104	0	0	23	-8	0.971	100	1	100	0	0	0	0	0	0	0	0	0	0	0	0;
	105	0	0	23	-8	0.965	100	1	100	0	0	0	0	0	0	0	0	0	0	0	0;
	107	0	0	200	-200	0.952	100	1	100	0	0	0	0	0	0	0	0	0	0	0	0;
	110	0	0	23	-8	0.973	100	1	100	0	0	0	0	0	0	0	0	0	0	0	0;
	111	36	0	1000	-100	0.98	100	1	136	0	0	0	0	0	0	0	0	0	0	0	0;
	112	0	0	1000	-100	0.975	100	1	100	0	0	0	0	0	0	0	0	0	0	0	0;
	113	0	0	200	-100	0.993	100	1	100	0	0	0	0	0	0	0	0	0	0	0	0;
	116	0	0	1000	-1000	1.005	100	1	100	0	0	0	0	0	0	0	0	0	0	0	0;
];

%% branch data
%	fbus	tbus	r	x	b	rateA	rateB	rateC	ratio	angle	status	angmin	angmax
mpc.branch = [
	1	2	0	0.10909009	0	9900	0	0	0	0	1	-360	360;
	1	3	0	0.0463247642	0	9900	0	0	0	0	1	-360	360;
	4	5	0	0.00836817043	0	9900	0	0	0	0	1	-360	360;
	3	5	0	0.11337787	0	9900	0	0	0	0	1	-360	360;
	5	6	0	0.0566224074	0	9900	0	0	0	0	1	-360	360;
	6	7	0	0.0218128894	0	9900	0	0	0	0	1	-360	360;
	8	9	0	0.0306952	0	9900	0	0	0	0	1	-360	360;
	8	5	0	0.0262995	0	9900	0	0	0.985	0	1	-360	360;
	9	10	0	0.0324067205	0	9900	0	0	0	0	1	-360	360;
	4	11	0	0.0751489826	0	9900	0	0	0	0	1	-360	360;
	5	11	0	0.0742423754	0	9900	0	0	0	0	1	-360	360;
	11	12	0	0.02140625	0	9900	0	0	0	0	1	-360	360;
	2	12	0	0.0672767857	0	9900	0	0	0	0	1	-360	360;
	3	12	0	0.174641	0	9900	0	0	0	0	1	-360	360;
	7	12	0	0.0361854235	0	9900	0	0	0	0	1	-360	360;
	11	13	0	0.0798724008	0	9900	0	0	0	0	1	-360	360;
	12	14	0	0.0772381895	0	9900	0	0	0	0	1	-360	360;
	13	15	0	0.267048773	0	9900	0	0	0	0	1	-360	360;
	14	15	0	0.213155128	0	9900	0	0	0	0	1	-360	360;
	12	16	0	0.0887889688	0	9900	0	0	0	0	1	-360	360;
	15	17	0	0.0476871854	0	9900	0	0	0	0	1	-360	360;
	16	17	0	0.191544531	0	9900	0	0	0	0	1	-360	360;
	17	18	0	0.0534958416	0	9900	0	0	0	0	1	-360	360;
	18	19	0	0.0518398803	0	9900	0	0	0	0	1	-360	360;
	19	20	0	0.122427692	0	9900	0	0	0	0	1	-360	360;
	15	19	0	0.0430548223	0	9900	0	0	0	0	1	-360	360;
	20	21	0	0.088844523	0	9900	0	0	0	0	1	-360	360;
	21	22	0	0.101503196	0	9900	0	0	0	0	1	-360	360;
	22	23	0	0.166356226	0	9900	0	0	0	0	1	-360	360;
	23	24	0	0.0529042683	0	9900	0	0	0	0	1	-360	360;
	23	25	0	0.083042	0	9900	0	0	0	0	1	-360	360;
	26	25	0	0.036672	0	9900	0	0	0.96	0	1	-360	360;
	25	27	0	0.169203926	0	9900	0	0	0	0	1	-360	360;
	27	28	0	0.0897801977	0	9900	0	0	0	0	1	-360	360;
	28	29	0	0.100256416	0	9900	0	0	0	0	1	-360	360;
	30	17	0	0.037248	0	9900	0	0	0.96	0	1	-360	360;
	8	30	0	0.0507685734	0	9900	0	0	0	0	1	-360	360;
	26	30	0	0.0867423267	0	9900	0	0	0	0	1	-360	360;
	17	31	0	0.170674664	0	9900	0	0	0	0	1	-360	360;
	29	31	0	0.0366238671	0	9900	0	0	0	0	1	-360	360;
	23	32	0	0.124015438	0	9900	0	0	0	0	1	-360	360;
	31	32	0	0.107515635	0	9900	0	0	0	0	1	-360	360;
	27	32	0	0.0824458278	0	9900	0	0	0	0	1	-360	360;
	15	33	0	0.136007717	0	9900	0	0	0	0	1	-360	360;
	19	34	0	0.269894899	0	9900	0	0	0	0	1	-360	360;
	35	36	0	0.0106919216	0	9900	0	0	0	0	1	-360	360;
	35	37	0	0.0521346076	0	9900	0	0	0	0	1	-360	360;
	33	37	0	0.154128521	0	9900	0	0	0	0	1	-360	360;
	34	36	0	0.02963075	0	9900	0	0	0	0	1	-360	360;
	34	37	0	0.0100971915	0	9900	0	0	0	0	1	-360	360;
	38	37	0	0.0350625	0	9900	0	0	0.935	0	1	-360	360;
	37	39	0	0.115720849	0	9900	0	0	0	0	1	-360	360;
	37	40	0	0.188931488	0	9900	0	0	0	0	1	-360	360;
	30	38	0	0.0543986963	0	9900	0	0	0	0	1	-360	360;
	39	40	0	0.0660960331	0	9900	0	0	0	0	1	-360	360;
	40	41	0	0.0530172485	0	9900	0	0	0	0	1	-360	360;
	40	42	0	0.199831967	0	9900	0	0	0	0	1	-360	360;
	41	42	0	0.147451852	0	9900	0	0	0	0	1	-360	360;
	43	44	0	0.260463733	0	9900	0	0	0	0	1	-360	360;
	34	43	0	0.178246877	0	9900	0	0	0	0	1	-360	360;
	44	45	0	0.0956689234	0	9900	0	0	0	0	1	-360	360;
	45	46	0	0.14739941	0	9900	0	0	0	0	1	-360	360;
	46	47	0	0.138370079	0	9900	0	0	0	0	1	-360	360;
	46	48	0	0.208111164	0	9900	0	0	0	0	1	-360	360;
	47	49	0	0.06833696	0	9900	0	0	0	0	1	-360	360;
	42	49	0	0.1694137	0	9900	0	0	0	0	1	-360	360;
	42	49	0	0.1694137	0	9900	0	0	0	0	1	-360	360;
	45	49	0	0.211153548	0	9900	0	0	0	0	1	-360	360;
	48	49	0	0.0568447525	0	9900	0	0	0	0	1	-360	360;
	49	50	0	0.0846799202	0	9900	0	0	0	0	1	-360	360;
	49	51	0	0.154240584	0	9900	0	0	0	0	1	-360	360;
	51	52	0	0.0658083333	0	9900	0	0	0	0	1	-360	360;
	52	53	0	0.17353211	0	9900	0	0	0	0	1	-360	360;
	53	54	0	0.12766959	0	9900	0	0	0	0	1	-360	360;
	49	54	0	0.156061279	0	9900	0	0	0	0	1	-360	360;
	49	54	0	0.156061279	0	9900	0	0	0	0	1	-360	360;
	54	55	0	0.0747397454	0	9900	0	0	0	0	1	-360	360;
	54	56	0	0.0103418848	0	9900	0	0	0	0	1	-360	360;
	55	56	0	0.0166771126	0	9900	0	0	0	0	1	-360	360;
	56	57	0	0.108778986	0	9900	0	0	0	0	1	-360	360;
	50	57	0	0.150766866	0	9900	0	0	0	0	1	-360	360;
	56	58	0	0.108778986	0	9900	0	0	0	0	1	-360	360;
	51	58	0	0.0809438108	0	9900	0	0	0	0	1	-360	360;
	54	59	0	0.240333973	0	9900	0	0	0	0	1	-360	360;
	56	59	0	0.135956312	0	9900	0	0	0	0	1	-360	360;
	56	59	0	0.135956312	0	9900	0	0	0	0	1	-360	360;
	55	59	0	0.226206914	0	9900	0	0	0	0	1	-360	360;
	59	60	0	0.151930276	0	9900	0	0	0	0	1	-360	360;
	59	61	0	0.157172267	0	9900	0	0	0	0	1	-360	360;
	60	61	0	0.0140162667	0	9900	0	0	0	0	1	-360	360;
	60	62	0	0.0587967914	0	9900	0	0	0	0	1	-360	360;
	61	62	0	0.0394057872	0	9900	0	0	0	0	1	-360	360;
	63	59	0	0.037056	0	9900	0	0	0.96	0	1	-360	360;
	63	64	0	0.02014792	0	9900	0	0	0	0	1	-360	360;
	64	61	0	0.026398	0	9900	0	0	0.985	0	1	-360	360;
	38	65	0	0.0994233276	0	9900	0	0	0	0	1	-360	360;
	64	65	0	0.030439606	0	9900	0	0	0	0	1	-360	360;
	49	66	0	0.0477127856	0	9900	0	0	0	0	1	-360	360;
	49	66	0	0.0477127856	0	9900	0	0	0	0	1	-360	360;
	62	66	0	0.228657064	0	9900	0	0	0	0	1	-360	360;
	62	67	0	0.122689231	0	9900	0	0	0	0	1	-360	360;
	65	66	0	0.034595	0	9900	0	0	0.935	0	1	-360	360;
	66	67	0	0.106443448	0	9900	0	0	0	0	1	-360	360;
	65	68	0	0.016119025	0	9900	0	0	0	0	1	-360	360;
	47	69	0	0.303442045	0	9900	0	0	0	0	1	-360	360;
	49	69	0	0.353945216	0	9900	0	0	0	0	1	-360	360;
	68	69	0	0.034595	0	9900	0	0	0.935	0	1	-360	360;
	69	70	0	0.134086614	0	9900	0	0	0	0	1	-360	360;
	24	70	0	0.411511869	0	9900	0	0	0	0	1	-360	360;
	70	71	0	0.0376913352	0	9900	0	0	0	0	1	-360	360;
	24	72	0	0.208150204	0	9900	0	0	0	0	1	-360	360;
	71	72	0	0.191050889	0	9900	0	0	0	0	1	-360	360;
	71	73	0	0.0470518855	0	9900	0	0	0	0	1	-360	360;
	70	74	0	0.144454271	0	9900	0	0	0	0	1	-360	360;
	70	75	0	0.153991773	0	9900	0	0	0	0	1	-360	360;
	69	75	0	0.135444672	0	9900	0	0	0	0	1	-360	360;
	74	75	0	0.0443263547	0	9900	0	0	0	0	1	-360	360;
	76	77	0	0.16132	0	9900	0	0	0	0	1	-360	360;
	69	77	0	0.110453564	0	9900	0	0	0	0	1	-360	360;
	75	77	0	0.217969085	0	9900	0	0	0	0	1	-360	360;
	77	78	0	0.013540129	0	9900	0	0	0	0	1	-360	360;
	78	79	0	0.0256217869	0	9900	0	0	0	0	1	-360	360;
	77	80	0	0.0367728939	0	9900	0	0	0	0	1	-360	360;
	77	80	0	0.0367728939	0	9900	0	0	0	0	1	-360	360;
	79	80	0	0.0738568182	0	9900	0	0	0	0	1	-360	360;
	68	81	0	0.0203516089	0	9900	0	0	0	0	1	-360	360;
	81	80	0	0.034595	0	9900	0	0	0.935	0	1	-360	360;
	77	82	0	0.0957107855	0	9900	0	0	0	0	1	-360	360;
	82	83	0	0.0400726467	0	9900	0	0	0	0	1	-360	360;
	83	84	0	0.161592803	0	9900	0	0	0	0	1	-360	360;
	83	85	0	0.160493243	0	9900	0	0	0	0	1	-360	360;
	84	85	0	0.0783283931	0	9900	0	0	0	0	1	-360	360;
	85	86	0	0.13295935	0	9900	0	0	0	0	1	-360	360;
	86	87	0	0.211256116	0	9900	0	0	0	0	1	-360	360;
	85	88	0	0.105921569	0	9900	0	0	0	0	1	-360	360;
	85	89	0	0.176301792	0	9900	0	0	0	0	1	-360	360;
	88	89	0	0.0739136236	0	9900	0	0	0	0	1	-360	360;
	89	90	0	0.0692848914	0	9900	0	0	0	0	1	-360	360;
	89	90	0	0.0692848914	0	9900	0	0	0	0	1	-360	360;
	90	91	0	0.0913172249	0	9900	0	0	0	0	1	-360	360;
	89	92	0	0.0399582067	0	9900	0	0	0	0	1	-360	360;
	89	92	0	0.0399582067	0	9900	0	0	0	0	1	-360	360;
	91	92	0	0.138974292	0	9900	0	0	0	0	1	-360	360;
	92	93	0	0.0926495283	0	9900	0	0	0	0	1	-360	360;
	92	94	0	0.172643101	0	9900	0	0	0	0	1	-360	360;
	93	94	0	0.0799935792	0	9900	0	0	0	0	1	-360	360;
	94	95	0	0.0474147465	0	9900	0	0	0	0	1	-360	360;
	80	96	0	0.188963516	0	9900	0	0	0	0	1	-360	360;
	82	96	0	0.0579516981	0	9900	0	0	0	0	1	-360	360;
	94	96	0	0.0952269275	0	9900	0	0	0	0	1	-360	360;
	80	97	0	0.096985546	0	9900	0	0	0	0	1	-360	360;
	80	98	0	0.113244815	0	9900	0	0	0	0	1	-360	360;
	80	99	0	0.216005631	0	9900	0	0	0	0	1	-360	360;
	92	100	0	0.309234034	0	9900	0	0	0	0	1	-360	360;
	94	100	0	0.0634627586	0	9900	0	0	0	0	1	-360	360;
	95	96	0	0.0600457038	0	9900	0	0	0	0	1	-360	360;
	96	97	0	0.0918818079	0	9900	0	0	0	0	1	-360	360;
	98	100	0	0.187804972	0	9900	0	0	0	0	1	-360	360;
	99	100	0	0.0852852399	0	9900	0	0	0	0	1	-360	360;
	100	101	0	0.132279952	0	9900	0	0	0	0	1	-360	360;
	92	102	0	0.0586064401	0	9900	0	0	0	0	1	-360	360;
	101	102	0	0.117403214	0	9900	0	0	0	0	1	-360	360;
	100	103	0	0.0573761905	0	9900	0	0	0	0	1	-360	360;
	100	104	0	0.213970637	0	9900	0	0	0	0	1	-360	360;
	103	104	0	0.172109343	0	9900	0	0	0	0	1	-360	360;
	103	105	0	0.180113846	0	9900	0	0	0	0	1	-360	360;
	100	106	0	0.244983624	0	9900	0	0	0	0	1	-360	360;
	104	105	0	0.0404138519	0	9900	0	0	0	0	1	-360	360;
	105	106	0	0.058283181	0	9900	0	0	0	0	1	-360	360;
	105	107	0	0.198349727	0	9900	0	0	0	0	1	-360	360;
	105	108	0	0.0799900427	0	9900	0	0	0	0	1	-360	360;
	106	107	0	0.198349727	0	9900	0	0	0	0	1	-360	360;
	108	109	0	0.032628125	0	9900	0	0	0	0	1	-360	360;
	103	110	0	0.189715243	0	9900	0	0	0	0	1	-360	360;
	109	110	0	0.0863422572	0	9900	0	0	0	0	1	-360	360;
	110	111	0	0.081910596	0	9900	0	0	0	0	1	-360	360;
	110	112	0	0.0735326562	0	9900	0	0	0	0	1	-360	360;
	17	113	0	0.0328693322	0	9900	0	0	0	0	1	-360	360;
	32	113	0	0.221631773	0	9900	0	0	0	0	1	-360	360;
	32	114	0	0.0641779412	0	9900	0	0	0	0	1	-360	360;
	27	115	0	0.0777296896	0	9900	0	0	0	0	1	-360	360;
	114	115	0	0.0109086538	0	9900	0	0	0	0	1	-360	360;
	68	116	0	0.00407854321	0	9900	0	0	0	0	1	-360	360;
	12	117	0	0.1477315	0	9900	0	0	0	0	1	-360	360;
	75	118	0	0.0524711019	0	9900	0	0	0	0	1	-360	360;
	76	118	0	0.0593441176	0	9900	0	0	0	0	1	-360	360;
];

%%-----  OPF Data  -----%%
%% generator cost data
%	1	startup	shutdown	n	x1	y1	...	xn	yn
%	2	startup	shutdown	n	c(n-1)	...	c0
mpc.gencost = [
	2	0	0	3	0.01	40	0;
	2	0	0	3	0.01	40	0;
	2	0	0	3	0.01	40	0;
	2	0	0	3	0.01	40	0;
	2	0	0	3	0.0222222	20	0;
	2	0	0	3	0.117647	20	0;
	2	0	0	3	0.01	40	0;
	2	0	0	3	0.01	40	0;
	2	0	0	3	0.01	40	0;
	2	0	0	3	0.01	40	0;
	2	0	0	3	0.0454545	20	0;
	2	0	0	3	0.0318471	20	0;
	2	0	0	3	0.01	40	0;
	2	0	0	3	1.42857	20	0;
	2	0	0	3	0.01	40	0;
	2	0	0	3	0.01	40	0;
	2	0	0	3	0.01	40	0;
	2	0	0	3	0.01	40	0;
	2	0	0	3	0.01	40	0;
	2	0	0	3	0.526316	20	0;
	2	0	0	3	0.0490196	20	0;
	2	0	0	3	0.208333	20	0;
	2	0	0	3	0.01	40	0;
	2	0	0	3	0.01	40	0;
	2	0	0	3	0.0645161	20	0;
	2	0	0	3	0.0625	20	0;
	2	0	0	3	0.01	40	0;
	2	0	0	3	0.0255754	20	0;
	2	0	0	3	0.0255102	20	0;
	2	0	0	3	0.0193648	20	0;
	2	0	0	3	0.01	40	0;
	2	0	0	3	0.01	40	0;
	2	0	0	3	0.01	40	0;
	2	0	0	3	0.01	40	0;
	2	0	0	3	0.01	40	0;
	2	0	0	3	0.01	40	0;
	2	0	0	3	0.0209644	20	0;
	2	0	0	3	0.01	40	0;
	2	0	0	3	2.5	20	0;
	2	0	0	3	0.0164745	20	0;
	2	0	0	3	0.01	40	0;
	2	0	0	3	0.01	40	0;
	2	0	0	3	0.01	40	0;
	2	0	0	3	0.01	40	0;
	2	0	0	3	0.0396825	20	0;
	2	0	0	3	0.25	20	0;
	2	0	0	3	0.01	40	0;
	2	0	0	3	0.01	40	0;
	2	0	0	3	0.01	40	0;
	2	0	0	3	0.01	40	0;
	2	0	0	3	0.277778	20	0;
	2	0	0	3	0.01	40	0;
	2	0	0	3	0.01	40	0;
	2	0	0	3	0.01	40	0;
];
